/*--------------------------------*- C++ -*----------------------------------*\
  =========                 |
  \\      /  F ield         | OpenFOAM: The Open Source CFD Toolbox
   \\    /   O peration     | Website:  https://openfoam.org
    \\  /    A nd           | Version:  12
     \\/     M anipulation  |
\*---------------------------------------------------------------------------*/
FoamFile
{
    format      ascii;
    class       volScalarField;
    object      T;
}
// * * * * * * * * * * * * * * * * * * * * * * * * * * * * * * * * * * * * * //

dimensions      [0 0 0 1 0 0 0];

internalField   uniform 298;

boundaryField
{
    inlet
    {
        type            fixedValue;
        value           uniform 385.15;
    }
    outlet
    {
        type            zeroGradient;
    }
    leftup
    {
        type            fixedValue;
        value           uniform 298;
    }
    leftdown
    {
       type            fixedValue;
        value           uniform 298;
    }
    top
    {
        type            zeroGradient;
    }
    bottom
    {
        type            zeroGradient;
    }
    frontAndBack
    {
        type            empty;
    }
}
// ************************************************************************* //
